  
       XFOIL         Version 6.99
  
 Calculated polar for: foil_profile_rR0.350.txt                        
  
 1 1 Reynolds number fixed          Mach number fixed         
  
 xtrf =   1.000 (top)        1.000 (bottom)  
 Mach =   0.000     Re =     0.000 e 6     Ncrit =   9.000
  
   alpha    CL        CD       CDp       CM     Top_Xtr  Bot_Xtr
  ------ -------- --------- --------- -------- -------- --------
  -8.000  -0.7351   0.00000  -0.01239  -0.0237   0.0000   0.0000
  -7.500  -0.6765   0.00000  -0.01148  -0.0245   0.0000   0.0000
  -7.000  -0.6179   0.00000  -0.01063  -0.0254   0.0000   0.0000
  -6.500  -0.5592   0.00000  -0.00983  -0.0263   0.0000   0.0000
  -6.000  -0.5006   0.00000  -0.00907  -0.0272   0.0000   0.0000
  -5.500  -0.4419   0.00000  -0.00837  -0.0281   0.0000   0.0000
  -5.000  -0.3831   0.00000  -0.00773  -0.0290   0.0000   0.0000
  -4.500  -0.3244   0.00000  -0.00713  -0.0299   0.0000   0.0000
  -4.000  -0.2656   0.00000  -0.00659  -0.0308   0.0000   0.0000
  -3.500  -0.2068   0.00000  -0.00610  -0.0317   0.0000   0.0000
  -3.000  -0.1480   0.00000  -0.00566  -0.0327   0.0000   0.0000
  -2.500  -0.0892   0.00000  -0.00527  -0.0336   0.0000   0.0000
  -2.000  -0.0303   0.00000  -0.00494  -0.0346   0.0000   0.0000
  -1.500   0.0285   0.00000  -0.00466  -0.0355   0.0000   0.0000
  -1.000   0.0874   0.00000  -0.00444  -0.0365   0.0000   0.0000
  -0.500   0.1462   0.00000  -0.00426  -0.0374   0.0000   0.0000
   0.000   0.2050   0.00000  -0.00414  -0.0384   0.0000   0.0000
   0.500   0.2639   0.00000  -0.00407  -0.0394   0.0000   0.0000
   1.000   0.3227   0.00000  -0.00405  -0.0404   0.0000   0.0000
   1.500   0.3815   0.00000  -0.00408  -0.0414   0.0000   0.0000
   2.000   0.4403   0.00000  -0.00417  -0.0424   0.0000   0.0000
   2.500   0.4991   0.00000  -0.00430  -0.0434   0.0000   0.0000
   3.000   0.5578   0.00000  -0.00449  -0.0444   0.0000   0.0000
   3.500   0.6165   0.00000  -0.00473  -0.0454   0.0000   0.0000
   4.000   0.6752   0.00000  -0.00501  -0.0464   0.0000   0.0000
   4.500   0.7339   0.00000  -0.00535  -0.0474   0.0000   0.0000
   5.000   0.7925   0.00000  -0.00573  -0.0484   0.0000   0.0000
   5.500   0.8511   0.00000  -0.00616  -0.0494   0.0000   0.0000
   6.000   0.9097   0.00000  -0.00664  -0.0505   0.0000   0.0000
   6.500   0.9682   0.00000  -0.00716  -0.0515   0.0000   0.0000
   7.000   1.0267   0.00000  -0.00773  -0.0525   0.0000   0.0000
   7.500   1.0851   0.00000  -0.00835  -0.0535   0.0000   0.0000
   8.000   1.1434   0.00000  -0.00901  -0.0546   0.0000   0.0000
