  
       XFOIL         Version 6.99
  
 Calculated polar for: foil_profile_rR0.300.txt                        
  
 1 1 Reynolds number fixed          Mach number fixed         
  
 xtrf =   1.000 (top)        1.000 (bottom)  
 Mach =   0.000     Re =     0.000 e 6     Ncrit =   9.000
  
   alpha    CL        CD       CDp       CM     Top_Xtr  Bot_Xtr
  ------ -------- --------- --------- -------- -------- --------
  -8.000  -0.7446   0.00000  -0.01128  -0.0231   0.0000   0.0000
  -7.500  -0.6855   0.00000  -0.01054  -0.0241   0.0000   0.0000
  -7.000  -0.6263   0.00000  -0.00984  -0.0251   0.0000   0.0000
  -6.500  -0.5672   0.00000  -0.00919  -0.0260   0.0000   0.0000
  -6.000  -0.5080   0.00000  -0.00857  -0.0270   0.0000   0.0000
  -5.500  -0.4487   0.00000  -0.00800  -0.0280   0.0000   0.0000
  -5.000  -0.3895   0.00000  -0.00747  -0.0290   0.0000   0.0000
  -4.500  -0.3302   0.00000  -0.00699  -0.0300   0.0000   0.0000
  -4.000  -0.2709   0.00000  -0.00654  -0.0310   0.0000   0.0000
  -3.500  -0.2115   0.00000  -0.00614  -0.0321   0.0000   0.0000
  -3.000  -0.1522   0.00000  -0.00579  -0.0331   0.0000   0.0000
  -2.500  -0.0929   0.00000  -0.00547  -0.0341   0.0000   0.0000
  -2.000  -0.0335   0.00000  -0.00520  -0.0352   0.0000   0.0000
  -1.500   0.0259   0.00000  -0.00497  -0.0362   0.0000   0.0000
  -1.000   0.0852   0.00000  -0.00479  -0.0373   0.0000   0.0000
  -0.500   0.1446   0.00000  -0.00464  -0.0383   0.0000   0.0000
   0.000   0.2040   0.00000  -0.00454  -0.0394   0.0000   0.0000
   0.500   0.2633   0.00000  -0.00448  -0.0405   0.0000   0.0000
   1.000   0.3226   0.00000  -0.00447  -0.0416   0.0000   0.0000
   1.500   0.3820   0.00000  -0.00450  -0.0427   0.0000   0.0000
   2.000   0.4413   0.00000  -0.00457  -0.0438   0.0000   0.0000
   2.500   0.5005   0.00000  -0.00468  -0.0449   0.0000   0.0000
   3.000   0.5598   0.00000  -0.00483  -0.0460   0.0000   0.0000
   3.500   0.6190   0.00000  -0.00502  -0.0471   0.0000   0.0000
   4.000   0.6782   0.00000  -0.00526  -0.0482   0.0000   0.0000
   4.500   0.7374   0.00000  -0.00553  -0.0493   0.0000   0.0000
   5.000   0.7965   0.00000  -0.00585  -0.0504   0.0000   0.0000
   5.500   0.8555   0.00000  -0.00620  -0.0515   0.0000   0.0000
   6.000   0.9146   0.00000  -0.00659  -0.0526   0.0000   0.0000
   6.500   0.9735   0.00000  -0.00702  -0.0537   0.0000   0.0000
   7.000   1.0325   0.00000  -0.00749  -0.0549   0.0000   0.0000
   7.500   1.0913   0.00000  -0.00800  -0.0560   0.0000   0.0000
   8.000   1.1501   0.00000  -0.00854  -0.0571   0.0000   0.0000
