  
       XFOIL         Version 6.99
  
 Calculated polar for: foil_profile_rR0.900.txt                        
  
 1 1 Reynolds number fixed          Mach number fixed         
  
 xtrf =   1.000 (top)        1.000 (bottom)  
 Mach =   0.000     Re =     0.000 e 6     Ncrit =   9.000
  
   alpha    CL        CD       CDp       CM     Top_Xtr  Bot_Xtr
  ------ -------- --------- --------- -------- -------- --------
  -8.000  -0.7348   0.00000  -0.01702  -0.0168   0.0000   0.0000
  -7.500  -0.6812   0.00000  -0.01521  -0.0177   0.0000   0.0000
  -7.000  -0.6276   0.00000  -0.01351  -0.0186   0.0000   0.0000
  -6.500  -0.5739   0.00000  -0.01193  -0.0195   0.0000   0.0000
  -6.000  -0.5201   0.00000  -0.01045  -0.0204   0.0000   0.0000
  -5.500  -0.4664   0.00000  -0.00908  -0.0213   0.0000   0.0000
  -5.000  -0.4126   0.00000  -0.00783  -0.0222   0.0000   0.0000
  -4.500  -0.3588   0.00000  -0.00669  -0.0231   0.0000   0.0000
  -4.000  -0.3049   0.00000  -0.00566  -0.0239   0.0000   0.0000
  -3.500  -0.2511   0.00000  -0.00474  -0.0248   0.0000   0.0000
  -3.000  -0.1972   0.00000  -0.00394  -0.0257   0.0000   0.0000
  -2.500  -0.1432   0.00000  -0.00324  -0.0266   0.0000   0.0000
  -2.000  -0.0893   0.00000  -0.00266  -0.0274   0.0000   0.0000
  -1.500  -0.0353   0.00000  -0.00219  -0.0283   0.0000   0.0000
  -1.000   0.0187   0.00000  -0.00183  -0.0291   0.0000   0.0000
  -0.500   0.0727   0.00000  -0.00158  -0.0300   0.0000   0.0000
   0.000   0.1267   0.00000  -0.00144  -0.0308   0.0000   0.0000
   0.500   0.1807   0.00000  -0.00141  -0.0317   0.0000   0.0000
   1.000   0.2348   0.00000  -0.00149  -0.0325   0.0000   0.0000
   1.500   0.2889   0.00000  -0.00168  -0.0333   0.0000   0.0000
   2.000   0.3430   0.00000  -0.00197  -0.0341   0.0000   0.0000
   2.500   0.3971   0.00000  -0.00237  -0.0349   0.0000   0.0000
   3.000   0.4512   0.00000  -0.00287  -0.0357   0.0000   0.0000
   3.500   0.5053   0.00000  -0.00347  -0.0365   0.0000   0.0000
   4.000   0.5594   0.00000  -0.00418  -0.0373   0.0000   0.0000
   4.500   0.6136   0.00000  -0.00499  -0.0381   0.0000   0.0000
   5.000   0.6677   0.00000  -0.00590  -0.0388   0.0000   0.0000
   5.500   0.7218   0.00000  -0.00691  -0.0396   0.0000   0.0000
   6.000   0.7760   0.00000  -0.00801  -0.0403   0.0000   0.0000
   6.500   0.8301   0.00000  -0.00921  -0.0411   0.0000   0.0000
   7.000   0.8843   0.00000  -0.01050  -0.0418   0.0000   0.0000
   7.500   0.9384   0.00000  -0.01188  -0.0425   0.0000   0.0000
   8.000   0.9925   0.00000  -0.01336  -0.0432   0.0000   0.0000
