  
       XFOIL         Version 6.99
  
 Calculated polar for: foil_profile_rR0.167.txt                        
  
 1 1 Reynolds number fixed          Mach number fixed         
  
 xtrf =   1.000 (top)        1.000 (bottom)  
 Mach =   0.000     Re =     0.000 e 6     Ncrit =   9.000
  
   alpha    CL        CD       CDp       CM     Top_Xtr  Bot_Xtr
  ------ -------- --------- --------- -------- -------- --------
  -8.000  -0.7484   0.00000  -0.00691  -0.0295   0.0000   0.0000
  -7.500  -0.6877   0.00000  -0.00652  -0.0308   0.0000   0.0000
  -7.000  -0.6269   0.00000  -0.00616  -0.0321   0.0000   0.0000
  -6.500  -0.5661   0.00000  -0.00582  -0.0334   0.0000   0.0000
  -6.000  -0.5052   0.00000  -0.00550  -0.0348   0.0000   0.0000
  -5.500  -0.4443   0.00000  -0.00521  -0.0361   0.0000   0.0000
  -5.000  -0.3834   0.00000  -0.00494  -0.0375   0.0000   0.0000
  -4.500  -0.3225   0.00000  -0.00470  -0.0388   0.0000   0.0000
  -4.000  -0.2615   0.00000  -0.00448  -0.0402   0.0000   0.0000
  -3.500  -0.2005   0.00000  -0.00429  -0.0416   0.0000   0.0000
  -3.000  -0.1396   0.00000  -0.00413  -0.0430   0.0000   0.0000
  -2.500  -0.0786   0.00000  -0.00399  -0.0444   0.0000   0.0000
  -2.000  -0.0176   0.00000  -0.00388  -0.0458   0.0000   0.0000
  -1.500   0.0434   0.00000  -0.00379  -0.0472   0.0000   0.0000
  -1.000   0.1044   0.00000  -0.00373  -0.0486   0.0000   0.0000
  -0.500   0.1654   0.00000  -0.00369  -0.0501   0.0000   0.0000
   0.000   0.2263   0.00000  -0.00368  -0.0515   0.0000   0.0000
   0.500   0.2873   0.00000  -0.00369  -0.0529   0.0000   0.0000
   1.000   0.3482   0.00000  -0.00374  -0.0544   0.0000   0.0000
   1.500   0.4091   0.00000  -0.00380  -0.0558   0.0000   0.0000
   2.000   0.4700   0.00000  -0.00390  -0.0573   0.0000   0.0000
   2.500   0.5309   0.00000  -0.00401  -0.0588   0.0000   0.0000
   3.000   0.5917   0.00000  -0.00416  -0.0602   0.0000   0.0000
   3.500   0.6524   0.00000  -0.00433  -0.0617   0.0000   0.0000
   4.000   0.7132   0.00000  -0.00452  -0.0631   0.0000   0.0000
   4.500   0.7738   0.00000  -0.00474  -0.0646   0.0000   0.0000
   5.000   0.8345   0.00000  -0.00499  -0.0661   0.0000   0.0000
   5.500   0.8950   0.00000  -0.00526  -0.0675   0.0000   0.0000
   6.000   0.9555   0.00000  -0.00555  -0.0690   0.0000   0.0000
   6.500   1.0160   0.00000  -0.00587  -0.0705   0.0000   0.0000
   7.000   1.0763   0.00000  -0.00621  -0.0720   0.0000   0.0000
   7.500   1.1367   0.00000  -0.00658  -0.0734   0.0000   0.0000
   8.000   1.1969   0.00000  -0.00697  -0.0749   0.0000   0.0000
