  
       XFOIL         Version 6.99
  
 Calculated polar for: foil_profile_rR0.550.txt                        
  
 1 1 Reynolds number fixed          Mach number fixed         
  
 xtrf =   1.000 (top)        1.000 (bottom)  
 Mach =   0.000     Re =     0.000 e 6     Ncrit =   9.000
  
   alpha    CL        CD       CDp       CM     Top_Xtr  Bot_Xtr
  ------ -------- --------- --------- -------- -------- --------
  -8.000  -0.6113   0.00000  -0.01849  -0.0499   0.0000   0.0000
  -7.500  -0.5549   0.00000  -0.01681  -0.0508   0.0000   0.0000
  -7.000  -0.4986   0.00000  -0.01523  -0.0517   0.0000   0.0000
  -6.500  -0.4422   0.00000  -0.01375  -0.0526   0.0000   0.0000
  -6.000  -0.3858   0.00000  -0.01237  -0.0536   0.0000   0.0000
  -5.500  -0.3294   0.00000  -0.01109  -0.0545   0.0000   0.0000
  -5.000  -0.2729   0.00000  -0.00991  -0.0554   0.0000   0.0000
  -4.500  -0.2164   0.00000  -0.00883  -0.0563   0.0000   0.0000
  -4.000  -0.1599   0.00000  -0.00785  -0.0572   0.0000   0.0000
  -3.500  -0.1033   0.00000  -0.00696  -0.0581   0.0000   0.0000
  -3.000  -0.0467   0.00000  -0.00618  -0.0590   0.0000   0.0000
  -2.500   0.0098   0.00000  -0.00549  -0.0599   0.0000   0.0000
  -2.000   0.0664   0.00000  -0.00490  -0.0608   0.0000   0.0000
  -1.500   0.1231   0.00000  -0.00441  -0.0617   0.0000   0.0000
  -1.000   0.1797   0.00000  -0.00402  -0.0626   0.0000   0.0000
  -0.500   0.2364   0.00000  -0.00372  -0.0635   0.0000   0.0000
   0.000   0.2930   0.00000  -0.00352  -0.0644   0.0000   0.0000
   0.500   0.3497   0.00000  -0.00341  -0.0653   0.0000   0.0000
   1.000   0.4064   0.00000  -0.00340  -0.0662   0.0000   0.0000
   1.500   0.4630   0.00000  -0.00348  -0.0670   0.0000   0.0000
   2.000   0.5197   0.00000  -0.00365  -0.0679   0.0000   0.0000
   2.500   0.5764   0.00000  -0.00392  -0.0688   0.0000   0.0000
   3.000   0.6331   0.00000  -0.00427  -0.0696   0.0000   0.0000
   3.500   0.6898   0.00000  -0.00471  -0.0705   0.0000   0.0000
   4.000   0.7465   0.00000  -0.00524  -0.0714   0.0000   0.0000
   4.500   0.8032   0.00000  -0.00586  -0.0722   0.0000   0.0000
   5.000   0.8598   0.00000  -0.00656  -0.0730   0.0000   0.0000
   5.500   0.9165   0.00000  -0.00734  -0.0739   0.0000   0.0000
   6.000   0.9731   0.00000  -0.00821  -0.0747   0.0000   0.0000
   6.500   1.0298   0.00000  -0.00915  -0.0755   0.0000   0.0000
   7.000   1.0864   0.00000  -0.01018  -0.0763   0.0000   0.0000
   7.500   1.1430   0.00000  -0.01128  -0.0771   0.0000   0.0000
   8.000   1.1995   0.00000  -0.01245  -0.0779   0.0000   0.0000
