  
       XFOIL         Version 6.99
  
 Calculated polar for: foil_profile_rR0.700.txt                        
  
 1 1 Reynolds number fixed          Mach number fixed         
  
 xtrf =   1.000 (top)        1.000 (bottom)  
 Mach =   0.000     Re =     0.000 e 6     Ncrit =   9.000
  
   alpha    CL        CD       CDp       CM     Top_Xtr  Bot_Xtr
  ------ -------- --------- --------- -------- -------- --------
  -8.000  -0.6307   0.00000  -0.02052  -0.0414   0.0000   0.0000
  -7.500  -0.5761   0.00000  -0.01853  -0.0425   0.0000   0.0000
  -7.000  -0.5214   0.00000  -0.01666  -0.0435   0.0000   0.0000
  -6.500  -0.4667   0.00000  -0.01491  -0.0446   0.0000   0.0000
  -6.000  -0.4120   0.00000  -0.01328  -0.0456   0.0000   0.0000
  -5.500  -0.3572   0.00000  -0.01177  -0.0467   0.0000   0.0000
  -5.000  -0.3024   0.00000  -0.01037  -0.0477   0.0000   0.0000
  -4.500  -0.2476   0.00000  -0.00910  -0.0487   0.0000   0.0000
  -4.000  -0.1927   0.00000  -0.00795  -0.0498   0.0000   0.0000
  -3.500  -0.1378   0.00000  -0.00691  -0.0508   0.0000   0.0000
  -3.000  -0.0828   0.00000  -0.00599  -0.0518   0.0000   0.0000
  -2.500  -0.0278   0.00000  -0.00519  -0.0528   0.0000   0.0000
  -2.000   0.0272   0.00000  -0.00451  -0.0538   0.0000   0.0000
  -1.500   0.0822   0.00000  -0.00394  -0.0548   0.0000   0.0000
  -1.000   0.1373   0.00000  -0.00349  -0.0558   0.0000   0.0000
  -0.500   0.1924   0.00000  -0.00315  -0.0567   0.0000   0.0000
   0.000   0.2476   0.00000  -0.00293  -0.0577   0.0000   0.0000
   0.500   0.3027   0.00000  -0.00282  -0.0586   0.0000   0.0000
   1.000   0.3579   0.00000  -0.00282  -0.0596   0.0000   0.0000
   1.500   0.4131   0.00000  -0.00292  -0.0605   0.0000   0.0000
   2.000   0.4683   0.00000  -0.00314  -0.0614   0.0000   0.0000
   2.500   0.5236   0.00000  -0.00346  -0.0623   0.0000   0.0000
   3.000   0.5789   0.00000  -0.00389  -0.0632   0.0000   0.0000
   3.500   0.6342   0.00000  -0.00442  -0.0641   0.0000   0.0000
   4.000   0.6895   0.00000  -0.00506  -0.0650   0.0000   0.0000
   4.500   0.7448   0.00000  -0.00579  -0.0658   0.0000   0.0000
   5.000   0.8001   0.00000  -0.00662  -0.0667   0.0000   0.0000
   5.500   0.8555   0.00000  -0.00755  -0.0675   0.0000   0.0000
   6.000   0.9108   0.00000  -0.00857  -0.0684   0.0000   0.0000
   6.500   0.9662   0.00000  -0.00969  -0.0692   0.0000   0.0000
   7.000   1.0215   0.00000  -0.01089  -0.0700   0.0000   0.0000
   7.500   1.0769   0.00000  -0.01219  -0.0708   0.0000   0.0000
   8.000   1.1323   0.00000  -0.01357  -0.0715   0.0000   0.0000
