  
       XFOIL         Version 6.99
  
 Calculated polar for: foil_profile_rR0.400.txt                        
  
 1 1 Reynolds number fixed          Mach number fixed         
  
 xtrf =   1.000 (top)        1.000 (bottom)  
 Mach =   0.000     Re =     0.000 e 6     Ncrit =   9.000
  
   alpha    CL        CD       CDp       CM     Top_Xtr  Bot_Xtr
  ------ -------- --------- --------- -------- -------- --------
  -8.000  -0.7076   0.00000  -0.01351  -0.0290   0.0000   0.0000
  -7.500  -0.6496   0.00000  -0.01244  -0.0298   0.0000   0.0000
  -7.000  -0.5915   0.00000  -0.01143  -0.0307   0.0000   0.0000
  -6.500  -0.5334   0.00000  -0.01049  -0.0315   0.0000   0.0000
  -6.000  -0.4753   0.00000  -0.00960  -0.0323   0.0000   0.0000
  -5.500  -0.4171   0.00000  -0.00878  -0.0331   0.0000   0.0000
  -5.000  -0.3589   0.00000  -0.00802  -0.0340   0.0000   0.0000
  -4.500  -0.3007   0.00000  -0.00732  -0.0348   0.0000   0.0000
  -4.000  -0.2425   0.00000  -0.00668  -0.0357   0.0000   0.0000
  -3.500  -0.1842   0.00000  -0.00611  -0.0365   0.0000   0.0000
  -3.000  -0.1260   0.00000  -0.00560  -0.0374   0.0000   0.0000
  -2.500  -0.0677   0.00000  -0.00515  -0.0383   0.0000   0.0000
  -2.000  -0.0094   0.00000  -0.00476  -0.0391   0.0000   0.0000
  -1.500   0.0489   0.00000  -0.00444  -0.0400   0.0000   0.0000
  -1.000   0.1072   0.00000  -0.00418  -0.0409   0.0000   0.0000
  -0.500   0.1654   0.00000  -0.00398  -0.0418   0.0000   0.0000
   0.000   0.2237   0.00000  -0.00385  -0.0427   0.0000   0.0000
   0.500   0.2820   0.00000  -0.00377  -0.0436   0.0000   0.0000
   1.000   0.3403   0.00000  -0.00376  -0.0445   0.0000   0.0000
   1.500   0.3986   0.00000  -0.00381  -0.0454   0.0000   0.0000
   2.000   0.4568   0.00000  -0.00392  -0.0464   0.0000   0.0000
   2.500   0.5151   0.00000  -0.00409  -0.0473   0.0000   0.0000
   3.000   0.5733   0.00000  -0.00432  -0.0482   0.0000   0.0000
   3.500   0.6315   0.00000  -0.00460  -0.0491   0.0000   0.0000
   4.000   0.6896   0.00000  -0.00495  -0.0501   0.0000   0.0000
   4.500   0.7478   0.00000  -0.00536  -0.0510   0.0000   0.0000
   5.000   0.8059   0.00000  -0.00582  -0.0519   0.0000   0.0000
   5.500   0.8640   0.00000  -0.00634  -0.0529   0.0000   0.0000
   6.000   0.9220   0.00000  -0.00691  -0.0538   0.0000   0.0000
   6.500   0.9800   0.00000  -0.00754  -0.0548   0.0000   0.0000
   7.000   1.0380   0.00000  -0.00822  -0.0557   0.0000   0.0000
   7.500   1.0959   0.00000  -0.00896  -0.0566   0.0000   0.0000
   8.000   1.1537   0.00000  -0.00975  -0.0576   0.0000   0.0000
