  
       XFOIL         Version 6.99
  
 Calculated polar for: foil_profile_rR0.600.txt                        
  
 1 1 Reynolds number fixed          Mach number fixed         
  
 xtrf =   1.000 (top)        1.000 (bottom)  
 Mach =   0.000     Re =     0.000 e 6     Ncrit =   9.000
  
   alpha    CL        CD       CDp       CM     Top_Xtr  Bot_Xtr
  ------ -------- --------- --------- -------- -------- --------
  -8.000  -0.6052   0.00000  -0.01997  -0.0497   0.0000   0.0000
  -7.500  -0.5495   0.00000  -0.01811  -0.0507   0.0000   0.0000
  -7.000  -0.4937   0.00000  -0.01637  -0.0516   0.0000   0.0000
  -6.500  -0.4379   0.00000  -0.01473  -0.0526   0.0000   0.0000
  -6.000  -0.3820   0.00000  -0.01321  -0.0536   0.0000   0.0000
  -5.500  -0.3261   0.00000  -0.01179  -0.0545   0.0000   0.0000
  -5.000  -0.2702   0.00000  -0.01049  -0.0555   0.0000   0.0000
  -4.500  -0.2143   0.00000  -0.00930  -0.0565   0.0000   0.0000
  -4.000  -0.1583   0.00000  -0.00821  -0.0574   0.0000   0.0000
  -3.500  -0.1023   0.00000  -0.00724  -0.0584   0.0000   0.0000
  -3.000  -0.0462   0.00000  -0.00637  -0.0593   0.0000   0.0000
  -2.500   0.0098   0.00000  -0.00561  -0.0603   0.0000   0.0000
  -2.000   0.0659   0.00000  -0.00497  -0.0612   0.0000   0.0000
  -1.500   0.1220   0.00000  -0.00442  -0.0621   0.0000   0.0000
  -1.000   0.1781   0.00000  -0.00399  -0.0631   0.0000   0.0000
  -0.500   0.2343   0.00000  -0.00366  -0.0640   0.0000   0.0000
   0.000   0.2904   0.00000  -0.00344  -0.0649   0.0000   0.0000
   0.500   0.3466   0.00000  -0.00332  -0.0658   0.0000   0.0000
   1.000   0.4028   0.00000  -0.00330  -0.0667   0.0000   0.0000
   1.500   0.4590   0.00000  -0.00339  -0.0676   0.0000   0.0000
   2.000   0.5152   0.00000  -0.00358  -0.0685   0.0000   0.0000
   2.500   0.5714   0.00000  -0.00387  -0.0694   0.0000   0.0000
   3.000   0.6277   0.00000  -0.00425  -0.0703   0.0000   0.0000
   3.500   0.6839   0.00000  -0.00473  -0.0711   0.0000   0.0000
   4.000   0.7402   0.00000  -0.00531  -0.0720   0.0000   0.0000
   4.500   0.7964   0.00000  -0.00598  -0.0728   0.0000   0.0000
   5.000   0.8527   0.00000  -0.00675  -0.0737   0.0000   0.0000
   5.500   0.9089   0.00000  -0.00760  -0.0745   0.0000   0.0000
   6.000   0.9652   0.00000  -0.00855  -0.0753   0.0000   0.0000
   6.500   1.0214   0.00000  -0.00958  -0.0762   0.0000   0.0000
   7.000   1.0776   0.00000  -0.01069  -0.0770   0.0000   0.0000
   7.500   1.1339   0.00000  -0.01189  -0.0778   0.0000   0.0000
   8.000   1.1901   0.00000  -0.01317  -0.0785   0.0000   0.0000
