  
       XFOIL         Version 6.99
  
 Calculated polar for: foil_profile_rR0.200.txt                        
  
 1 1 Reynolds number fixed          Mach number fixed         
  
 xtrf =   1.000 (top)        1.000 (bottom)  
 Mach =   0.000     Re =     0.000 e 6     Ncrit =   9.000
  
   alpha    CL        CD       CDp       CM     Top_Xtr  Bot_Xtr
  ------ -------- --------- --------- -------- -------- --------
  -8.000  -0.7426   0.00000  -0.00975  -0.0275   0.0000   0.0000
  -7.500  -0.6823   0.00000  -0.00928  -0.0287   0.0000   0.0000
  -7.000  -0.6219   0.00000  -0.00884  -0.0299   0.0000   0.0000
  -6.500  -0.5615   0.00000  -0.00842  -0.0312   0.0000   0.0000
  -6.000  -0.5010   0.00000  -0.00804  -0.0324   0.0000   0.0000
  -5.500  -0.4406   0.00000  -0.00768  -0.0337   0.0000   0.0000
  -5.000  -0.3800   0.00000  -0.00735  -0.0350   0.0000   0.0000
  -4.500  -0.3195   0.00000  -0.00705  -0.0363   0.0000   0.0000
  -4.000  -0.2590   0.00000  -0.00677  -0.0376   0.0000   0.0000
  -3.500  -0.1984   0.00000  -0.00653  -0.0389   0.0000   0.0000
  -3.000  -0.1378   0.00000  -0.00631  -0.0402   0.0000   0.0000
  -2.500  -0.0772   0.00000  -0.00612  -0.0415   0.0000   0.0000
  -2.000  -0.0166   0.00000  -0.00597  -0.0428   0.0000   0.0000
  -1.500   0.0440   0.00000  -0.00583  -0.0442   0.0000   0.0000
  -1.000   0.1046   0.00000  -0.00573  -0.0455   0.0000   0.0000
  -0.500   0.1652   0.00000  -0.00566  -0.0468   0.0000   0.0000
   0.000   0.2257   0.00000  -0.00562  -0.0482   0.0000   0.0000
   0.500   0.2863   0.00000  -0.00560  -0.0496   0.0000   0.0000
   1.000   0.3468   0.00000  -0.00561  -0.0509   0.0000   0.0000
   1.500   0.4074   0.00000  -0.00565  -0.0523   0.0000   0.0000
   2.000   0.4678   0.00000  -0.00572  -0.0537   0.0000   0.0000
   2.500   0.5283   0.00000  -0.00582  -0.0550   0.0000   0.0000
   3.000   0.5887   0.00000  -0.00595  -0.0564   0.0000   0.0000
   3.500   0.6491   0.00000  -0.00610  -0.0578   0.0000   0.0000
   4.000   0.7095   0.00000  -0.00628  -0.0592   0.0000   0.0000
   4.500   0.7698   0.00000  -0.00649  -0.0606   0.0000   0.0000
   5.000   0.8301   0.00000  -0.00672  -0.0619   0.0000   0.0000
   5.500   0.8903   0.00000  -0.00699  -0.0633   0.0000   0.0000
   6.000   0.9504   0.00000  -0.00728  -0.0647   0.0000   0.0000
   6.500   1.0105   0.00000  -0.00759  -0.0661   0.0000   0.0000
   7.000   1.0705   0.00000  -0.00793  -0.0675   0.0000   0.0000
   7.500   1.1305   0.00000  -0.00830  -0.0689   0.0000   0.0000
   8.000   1.1904   0.00000  -0.00869  -0.0703   0.0000   0.0000
