  
       XFOIL         Version 6.99
  
 Calculated polar for: foil_profile_rR0.500.txt                        
  
 1 1 Reynolds number fixed          Mach number fixed         
  
 xtrf =   1.000 (top)        1.000 (bottom)  
 Mach =   0.000     Re =     0.000 e 6     Ncrit =   9.000
  
   alpha    CL        CD       CDp       CM     Top_Xtr  Bot_Xtr
  ------ -------- --------- --------- -------- -------- --------
  -8.000  -0.6327   0.00000  -0.01660  -0.0464   0.0000   0.0000
  -7.500  -0.5757   0.00000  -0.01514  -0.0472   0.0000   0.0000
  -7.000  -0.5188   0.00000  -0.01377  -0.0481   0.0000   0.0000
  -6.500  -0.4618   0.00000  -0.01248  -0.0490   0.0000   0.0000
  -6.000  -0.4048   0.00000  -0.01127  -0.0498   0.0000   0.0000
  -5.500  -0.3478   0.00000  -0.01015  -0.0507   0.0000   0.0000
  -5.000  -0.2907   0.00000  -0.00912  -0.0516   0.0000   0.0000
  -4.500  -0.2336   0.00000  -0.00818  -0.0525   0.0000   0.0000
  -4.000  -0.1765   0.00000  -0.00732  -0.0533   0.0000   0.0000
  -3.500  -0.1194   0.00000  -0.00655  -0.0542   0.0000   0.0000
  -3.000  -0.0623   0.00000  -0.00587  -0.0551   0.0000   0.0000
  -2.500  -0.0051   0.00000  -0.00527  -0.0560   0.0000   0.0000
  -2.000   0.0520   0.00000  -0.00476  -0.0569   0.0000   0.0000
  -1.500   0.1092   0.00000  -0.00433  -0.0577   0.0000   0.0000
  -1.000   0.1664   0.00000  -0.00399  -0.0586   0.0000   0.0000
  -0.500   0.2236   0.00000  -0.00374  -0.0595   0.0000   0.0000
   0.000   0.2808   0.00000  -0.00357  -0.0604   0.0000   0.0000
   0.500   0.3380   0.00000  -0.00348  -0.0613   0.0000   0.0000
   1.000   0.3952   0.00000  -0.00348  -0.0621   0.0000   0.0000
   1.500   0.4524   0.00000  -0.00355  -0.0630   0.0000   0.0000
   2.000   0.5096   0.00000  -0.00372  -0.0639   0.0000   0.0000
   2.500   0.5668   0.00000  -0.00396  -0.0648   0.0000   0.0000
   3.000   0.6240   0.00000  -0.00428  -0.0656   0.0000   0.0000
   3.500   0.6811   0.00000  -0.00468  -0.0665   0.0000   0.0000
   4.000   0.7383   0.00000  -0.00516  -0.0674   0.0000   0.0000
   4.500   0.7954   0.00000  -0.00571  -0.0682   0.0000   0.0000
   5.000   0.8526   0.00000  -0.00635  -0.0691   0.0000   0.0000
   5.500   0.9097   0.00000  -0.00705  -0.0699   0.0000   0.0000
   6.000   0.9667   0.00000  -0.00783  -0.0708   0.0000   0.0000
   6.500   1.0238   0.00000  -0.00868  -0.0716   0.0000   0.0000
   7.000   1.0808   0.00000  -0.00960  -0.0725   0.0000   0.0000
   7.500   1.1378   0.00000  -0.01060  -0.0733   0.0000   0.0000
   8.000   1.1948   0.00000  -0.01166  -0.0742   0.0000   0.0000
