  
       XFOIL         Version 6.99
  
 Calculated polar for: foil_profile_rR0.800.txt                        
  
 1 1 Reynolds number fixed          Mach number fixed         
  
 xtrf =   1.000 (top)        1.000 (bottom)  
 Mach =   0.000     Re =     0.000 e 6     Ncrit =   9.000
  
   alpha    CL        CD       CDp       CM     Top_Xtr  Bot_Xtr
  ------ -------- --------- --------- -------- -------- --------
  -8.000  -0.6819   0.00000  -0.01857  -0.0276   0.0000   0.0000
  -7.500  -0.6281   0.00000  -0.01670  -0.0287   0.0000   0.0000
  -7.000  -0.5742   0.00000  -0.01494  -0.0298   0.0000   0.0000
  -6.500  -0.5203   0.00000  -0.01329  -0.0308   0.0000   0.0000
  -6.000  -0.4664   0.00000  -0.01176  -0.0319   0.0000   0.0000
  -5.500  -0.4124   0.00000  -0.01034  -0.0329   0.0000   0.0000
  -5.000  -0.3583   0.00000  -0.00903  -0.0339   0.0000   0.0000
  -4.500  -0.3043   0.00000  -0.00784  -0.0350   0.0000   0.0000
  -4.000  -0.2502   0.00000  -0.00676  -0.0360   0.0000   0.0000
  -3.500  -0.1960   0.00000  -0.00579  -0.0370   0.0000   0.0000
  -3.000  -0.1418   0.00000  -0.00493  -0.0380   0.0000   0.0000
  -2.500  -0.0876   0.00000  -0.00419  -0.0390   0.0000   0.0000
  -2.000  -0.0334   0.00000  -0.00356  -0.0400   0.0000   0.0000
  -1.500   0.0209   0.00000  -0.00303  -0.0410   0.0000   0.0000
  -1.000   0.0752   0.00000  -0.00262  -0.0420   0.0000   0.0000
  -0.500   0.1296   0.00000  -0.00231  -0.0430   0.0000   0.0000
   0.000   0.1840   0.00000  -0.00212  -0.0439   0.0000   0.0000
   0.500   0.2384   0.00000  -0.00203  -0.0449   0.0000   0.0000
   1.000   0.2928   0.00000  -0.00204  -0.0458   0.0000   0.0000
   1.500   0.3472   0.00000  -0.00216  -0.0468   0.0000   0.0000
   2.000   0.4017   0.00000  -0.00239  -0.0477   0.0000   0.0000
   2.500   0.4562   0.00000  -0.00271  -0.0486   0.0000   0.0000
   3.000   0.5107   0.00000  -0.00314  -0.0495   0.0000   0.0000
   3.500   0.5652   0.00000  -0.00366  -0.0504   0.0000   0.0000
   4.000   0.6198   0.00000  -0.00428  -0.0512   0.0000   0.0000
   4.500   0.6743   0.00000  -0.00500  -0.0521   0.0000   0.0000
   5.000   0.7289   0.00000  -0.00581  -0.0530   0.0000   0.0000
   5.500   0.7835   0.00000  -0.00672  -0.0538   0.0000   0.0000
   6.000   0.8381   0.00000  -0.00771  -0.0546   0.0000   0.0000
   6.500   0.8927   0.00000  -0.00879  -0.0554   0.0000   0.0000
   7.000   0.9473   0.00000  -0.00996  -0.0562   0.0000   0.0000
   7.500   1.0019   0.00000  -0.01122  -0.0570   0.0000   0.0000
   8.000   1.0565   0.00000  -0.01256  -0.0578   0.0000   0.0000
